powerfactory/powerfactory-converter/src/test/resources/Transformer-Phase-Neutral-with-mTaps.xiidm
<?xml version="1.0" encoding="UTF-8"?>
<iidm:network xmlns:iidm="http://www.powsybl.org/schema/iidm/1_18" id="Transformer-Phase-Neutral-with-mTaps" caseDate="2021-01-01T10:00:00.000+02:00" forecastDistance="0" sourceFormat="POWER-FACTORY" minimumValidationLevel="STEADY_STATE_HYPOTHESIS">
    <iidm:substation id="S13">
        <iidm:voltageLevel id="VL13" nominalV="400.0" topologyKind="NODE_BREAKER">
            <iidm:nodeBreakerTopology>
                <iidm:busbarSection id="VL13_1 Bus 1-Slack" node="0"/>
                <iidm:switch id="VL13_Switch" kind="BREAKER" open="false" node1="0" node2="1"/>
                <iidm:switch id="VL13_Switch#0" kind="BREAKER" open="false" node1="0" node2="2"/>
                <iidm:switch id="VL13_Switch#1" kind="BREAKER" open="false" node1="0" node2="3"/>
                <iidm:bus v="423.9999694824219" angle="0.0" nodes="0,1,2,3"/>
            </iidm:nodeBreakerTopology>
            <iidm:generator id="sym_1_1" energySource="OTHER" minP="0.0" maxP="50.22999954223633" targetP="50.22999954223633" localTargetV="423.9999771118164" localTargetQ="0.0" node="3">
                <iidm:minMaxReactiveLimits minQ="0.0" maxQ="0.0"/>
                <iidm:voltageRegulation mode="VOLTAGE" regulating="true"/>
            </iidm:generator>
        </iidm:voltageLevel>
    </iidm:substation>
    <iidm:substation id="S14">
        <iidm:voltageLevel id="VL14" nominalV="400.0" topologyKind="NODE_BREAKER">
            <iidm:nodeBreakerTopology>
                <iidm:busbarSection id="VL14_2 Bus 2" node="0"/>
                <iidm:busbarSection id="VL14_3 Bus 2-Load" node="3"/>
                <iidm:switch id="VL14_Switch" kind="BREAKER" open="false" node1="0" node2="1"/>
                <iidm:switch id="VL14_Switch#0" kind="BREAKER" open="false" node1="0" node2="2"/>
                <iidm:switch id="VL14_Switch#1" kind="BREAKER" open="false" node1="3" node2="4"/>
                <iidm:switch id="VL14_Switch#2" kind="BREAKER" open="false" node1="3" node2="5"/>
                <iidm:switch id="VL14_Switch#3" kind="BREAKER" open="false" node1="3" node2="6"/>
                <iidm:bus v="423.7755432128906" angle="-0.7948187589645386" nodes="0,1,2"/>
                <iidm:bus v="423.5598449707031" angle="-0.851496160030365" nodes="3,4,5,6"/>
            </iidm:nodeBreakerTopology>
            <iidm:load id="lod_3_1" loadType="UNDEFINED" p0="50.0" q0="25.0" node="5"/>
        </iidm:voltageLevel>
        <iidm:twoWindingsTransformer id="trf_2_3_1" r="0.0" x="7.392000213382751" ratedU1="400.0" ratedU2="400.0" ratedS="1524.0" node1="2" voltageLevelId1="VL14" node2="6" voltageLevelId2="VL14">
            <iidm:phaseTapChanger tapPosition="1" loadTapChangingCapabilities="true" regulationMode="CURRENT_LIMITER" regulating="false">
                <iidm:step rho="1.0" alpha="10.0"/>
                <iidm:step rho="1.0" alpha="-0.0"/>
                <iidm:step rho="1.0" alpha="-10.0"/>
            </iidm:phaseTapChanger>
        </iidm:twoWindingsTransformer>
    </iidm:substation>
    <iidm:line id="lne_1_2_1" r="31.007963180541992" x="94.67198181152344" b1="1.0815001583099366E-4" b2="1.0815001583099366E-4" node1="1" voltageLevelId1="VL13" node2="1" voltageLevelId2="VL14"/>
    <iidm:line id="lne_1_3_1" r="31.007963180541992" x="94.67198181152344" b1="1.0815001583099366E-4" b2="1.0815001583099366E-4" node1="2" voltageLevelId1="VL13" node2="4" voltageLevelId2="VL14"/>
</iidm:network>
